Version 4
SHEET 1 880 680
WIRE -656 192 -896 192
WIRE -544 192 -576 192
WIRE -496 192 -544 192
WIRE -384 192 -432 192
WIRE -352 192 -384 192
WIRE -240 192 -288 192
WIRE -208 192 -240 192
WIRE -112 192 -144 192
WIRE -80 192 -112 192
WIRE 32 192 -16 192
WIRE 144 192 112 192
WIRE 208 192 144 192
WIRE 272 192 208 192
WIRE -544 208 -544 192
WIRE -384 208 -384 192
WIRE -240 208 -240 192
WIRE -112 208 -112 192
WIRE 144 208 144 192
WIRE -896 256 -896 192
WIRE -544 320 -544 272
WIRE -384 320 -384 288
WIRE -384 320 -544 320
WIRE -240 320 -240 288
WIRE -240 320 -384 320
WIRE -112 320 -112 288
WIRE -112 320 -240 320
WIRE 144 320 144 272
WIRE 144 320 -112 320
WIRE 208 320 208 272
WIRE 208 320 144 320
WIRE -896 352 -896 336
WIRE -240 352 -240 320
FLAG -896 352 0
FLAG -240 352 0
SYMBOL voltage -896 240 R0
WINDOW 123 24 124 Left 2
WINDOW 39 0 0 Left 2
SYMATTR Value2 AC 1
SYMATTR InstName V1
SYMATTR Value SINE(1.65 1 5k)
SYMBOL res -560 176 R90
WINDOW 0 0 56 VBottom 2
WINDOW 3 32 56 VTop 2
SYMATTR InstName R1
SYMATTR Value 6800
SYMBOL cap -560 208 R0
SYMATTR InstName C1
SYMATTR Value 2.2n
SYMBOL cap -432 176 R90
WINDOW 0 0 32 VBottom 2
WINDOW 3 32 32 VTop 2
SYMATTR InstName C2
SYMATTR Value 100n
SYMBOL cap -288 176 R90
WINDOW 0 0 32 VBottom 2
WINDOW 3 32 32 VTop 2
SYMATTR InstName C3
SYMATTR Value 100n
SYMBOL cap -144 176 R90
WINDOW 0 0 32 VBottom 2
WINDOW 3 32 32 VTop 2
SYMATTR InstName C4
SYMATTR Value 4.7n
SYMBOL cap -16 176 R90
WINDOW 0 0 32 VBottom 2
WINDOW 3 32 32 VTop 2
SYMATTR InstName C5
SYMATTR Value 4.7n
SYMBOL res -400 192 R0
SYMATTR InstName R2
SYMATTR Value 82.5k
SYMBOL res -256 192 R0
SYMATTR InstName R3
SYMATTR Value 82.5k
SYMBOL res -128 192 R0
SYMATTR InstName R4
SYMATTR Value 150k
SYMBOL res 128 176 R90
WINDOW 0 0 56 VBottom 2
WINDOW 3 32 56 VTop 2
SYMATTR InstName R5
SYMATTR Value 82.5k
SYMBOL cap 128 208 R0
SYMATTR InstName C6
SYMATTR Value 1n
SYMBOL res 192 176 R0
SYMATTR InstName R6
SYMATTR Value 20k
TEXT -928 384 Left 2 !.ac oct 100 1 100k
